%chk=spmopt.chk
%nproc=4
#P OPT HF/6-31G** pop=NPA

Optimizacion de estructura de espermina

4 1 
N         -0.12914        0.00672        8.50210
C          0.47765       -0.02098        7.10634
C         -0.48166        0.01879        5.87883
C          0.28234       -0.01562        4.51956
N         -0.55707        0.01894        3.24347
C          0.28945       -0.01891        1.97314
C         -0.47657        0.01241        0.61652
C          0.47236       -0.02980       -0.62073
C         -0.29366        0.00152       -1.97735
N          0.55287       -0.03634       -3.24767
C         -0.28652       -0.00177       -4.52377
C          0.47750       -0.03619       -5.88303
C         -0.48179        0.00359       -7.11056
N          0.12502       -0.02411       -8.50630
H          0.61264       -0.02429        9.22534
H         -0.75031       -0.80464        8.66641
H         -0.67843        0.86875        8.66445
H          1.06947       -0.94237        7.10937
H          1.14630        0.84628        7.10728
H         -1.08924        0.92664        5.92804
H         -1.16485       -0.83349        5.93010
H          0.87578       -0.93397        4.45598
H          0.95233        0.84831        4.45389
H         -1.13983        0.87539        3.23893
H         -1.21113       -0.78438        3.24087
H          0.88343       -0.93677        2.03527
H          0.95996        0.84478        2.03318
H         -1.08531        0.91958        0.57078
H         -1.16087       -0.83931        0.57284
H          1.08109       -0.93697       -0.57499
H          1.15665        0.82192       -0.57705
H         -0.88764        0.91938       -2.03948
H         -0.96417       -0.86217       -2.03740
H          1.13563       -0.89279       -3.24312
H          1.20694        0.76698       -3.24507
H         -0.87995        0.91658       -4.46020
H         -0.95652       -0.86569       -4.45812
H          1.08507       -0.94403       -5.93223
H          1.16069        0.81609       -5.93429
H         -1.07361        0.92499       -7.11360
H         -1.15045       -0.86366       -7.11151
H          0.74620        0.78725       -8.67061
H         -0.61674        0.00691       -9.22956
H          0.67431       -0.88614       -8.66865

