%nproc=4
%chk=spm_cargas.chk
#P HF/6-31G* POP(MK) IOP(6/33=2) scf=direct Test geom=allcheck guess=read

Calculo de cargas de espermina

4 1 
N    -0.313521    0.014313    8.222419
C     0.500807   -0.022152    6.955035
C    -0.389683    0.014635    5.702078
C     0.486090   -0.024467    4.437794
N    -0.345150    0.009762    3.173546
C     0.470508   -0.026777    1.893296
C    -0.424599    0.010214    0.645328
C     0.420427   -0.027603   -0.649538
C    -0.474680    0.009387   -1.897505
N     0.340978   -0.027151   -3.177755
C    -0.490262    0.007077   -4.442003
C     0.385511   -0.032025   -5.706287
C    -0.504979    0.004761   -6.959245
N     0.309349   -0.031706   -8.226628
H     0.295773   -0.010912    9.033635
H    -0.940428   -0.775965    8.312039
H    -0.870337    0.855648    8.310129
H     1.090733   -0.927218    7.003722
H     1.166181    0.829100    7.001667
H    -0.991374    0.919825    5.706912
H    -1.066785   -0.835606    5.708967
H     1.075756   -0.930111    4.390742
H     1.151245    0.827161    4.388685
H    -0.920507    0.841319    3.174774
H    -0.989700   -0.769384    3.176660
H     1.059984   -0.932575    1.936702
H     1.135496    0.825231    1.934644
H    -1.029148    0.913239    0.656515
H    -1.104361   -0.837610    0.658566
H     1.024976   -0.930628   -0.660725
H     1.100190    0.820221   -0.662775
H    -1.064156    0.915186   -1.940912
H    -1.139668   -0.842620   -1.938853
H     0.916335   -0.858708   -3.178983
H     0.985528    0.751995   -3.180870
H    -1.079927    0.912722   -4.394951
H    -1.155417   -0.844550   -4.392893
H     0.987202   -0.937215   -5.711121
H     1.062613    0.818216   -5.713177
H    -1.094905    0.909827   -7.007932
H    -1.170354   -0.846491   -7.005875
H     0.936256    0.758571   -8.316249
H    -0.299945   -0.006482   -9.037844
H     0.866165   -0.873042   -8.314337
